-----BEGIN RSA PRIVATE KEY-----
MIIJJwIBAAKCAgEAx7YgEwOyoOrfaHILoXlYD7Hgaxgxou7Z6vPA0ZhAH2H0qY3o
rOlYlpJR+L73/Ypk++d+Ob1GBRJm6Tk6jWD9KWvJoIssM4qBfRVGKLh47S+hucq+
+ihpsDvHrkRwIqWyemW+/T+fwGbiYxRo1+KP4VPHh6qF9dsQtsKbJU1gHh3asQVH
VMLUJjegWf11kS9oTZ+O4fRXuTFfVCLS4P8zoH/PitzDX6m5wCbMgr9SXpsmCeDt
abYvWArpS2QIgFtLOvNMtLZWSDCypfAZplyzUZUeExE8kAY2CscuCLiB4CJ8jOuV
K94ZZIdRUp7so2/W1ez/dWPq4CYX8ecoUHHlMMadcUGN2sp6aZsaX3gkKjbLIkqE
LxhUD5JVQJ9k74g2HgHWZUs9tlh4v3/OTkfrluccxzeoWtfVddczp7e8VujwHcSi
pNeMnS+8QT+HWwYMCVV9a9FgE8yUHXafCzseVOu42Gm8zcGwZuHwbDCJNMrnGkKT
F3x6vCH/g5XnqJqfDenCt6bloMFYppE615VJzdVxsIvnEkfmmqdWBNxqJCyCOhTX
1aNmtR3mgpKY8NNZE2STe89hubuNX6263Dvs+OEPLUeT4kA+1ykSvhjVmruC+Mnx
yNwDyLQHPWgt6BfQPSQe7pqCrIA2gUJMGWxLbl7R6mqyluPbseimEZhTmJECAwEA
AQKCAgACv6j1WgmtWU4128v5LvhdTu9tyel0+qCZMT2oJNZNGEYLx146cwO7Hsxu
BgLXxH3bUbZVCRvbmgM8loMNyxXw6gDeasvy8acSl6ZdjRxs90jci8PRIZlCya/X
4C1C7NDmClx0k9mZBlF7V56RyhZ83XBTl688UQWL3mXQP55hC7wkz5PJwNy2ofFd
C7YAh4yB9P48ceZ7MAjF2azZV+nX/apXmO4/dNCPqnkKG6QAlVYSsLvTxqQkLBJF
7VyIl7kTWKHnotLRL4pl6kYQGhqFtu2xCX2x5cP8pf0mNZPkB9V7AwsMjYP/9DTU
VEehgDqOuzJQ5U0oRJ3zwGC3qrmiyf0kkjAMAjyMVObBWkuEtRHn3tTtgOPxBoKm
G5koi6ItDjKnWGdATCpa7sYi7MHjQnaA++9z8StXB0orShDLR3y7RddAzXB3yhE9
dwoA5OyrnpI4TwmeQ56T+gl1a/6E6sIB/IZCDRRYD14R/rtQ7+6Tf4547v33EgoP
3KbMCOh+tWuCgTj4DagKg9aL4rVQ/MT3DAttDsD7X7EWDDHnkfTERjDq/O4FySGP
5bB/YpHgY0gBFJcMQCAkKeKT1cdwbYxhNM+dQGPt0ivDKdpSNE889TEY42mwmfJl
N5Pfu18m5AhQvfjK+cJSmV3NUc2VVMIuaNo/6XZp8Rq4OFsyOQKCAQEA7yN8SGyd
m+cSxzkrPn4xVE3Shpbov+Fq04ukqFHZp+ynEvnJsmcFdhwpwVb6NlpjEPKwwRI5
9yuNl5e+8oD6ItdvMNbXU/M4+B3uGp+FwwtgX9mP7Q6ZH3hZnZ00ejTdNxmO+hgd
VQeraZIFhoP8G0FHiFledoH1WO/nDBNKa4oGLxD2VdwUtwoWtPBwFo4ZjHIcVGK4
w6iK4wAHEIk3qSWKnjN3k6skGGMoe5U5cV8azsaFiYDPq9NQsjcHOjIQS6Q3Wgnv
b3Iuyh6Q/b2GClTVatx3GTM6sUXJz5WJYA9zT+Iu1l+1pqozKZxz3FgqYavguf0P
CR9EetF9Fq/kYwKCAQEA1cr4AFVnrG5IOb6BsSul2BkkapUyh7frALmKTG1MJMPg
Z9lU6UW/PZB+t+s1uw6ksedDv6+02g5SN1KFXne3g65R5D/73Ox759vC4zYvQEm6
xW/0grUDH4e6l1KYeEW7dVpkh/tfcRaHVJI8bp1whuqq9LMOUcdgCybpiIHd+9hn
HWZINDzWyiNfpX9FpiBCvD2AoYdxTk58j2p//LVIgiGWN0wM7xdRr/yIR7fqu98F
T98F/3TTl0dQ0d4qDLiUS2WjSLGqKHJYTpxiASElir1jZC0jEh5Qz2LlIRVxqeER
lONpZ77K/F9cYBflP6iVoVTRxPTjUvsJGH+gsFm/ewKCAQB7yg262+bWXk5dLJ3T
ErXsYwCYxSOkuEZ5TW8l5oDaKWnvK7iaDjRIiJmgyKprWmyvyEFxIEM7TKNWFqo0
lElnocegK4Z5oY0a+ztXMr6mUYxI8bFMUGM5ZC5XpZoVrKnarPNTSQpeCsNTuc/8
avQlE6y4yzJX/DwKFt2uZYn/kwpScOBjX7KlcaaBcXlEY7ib+DHsCNKGDggfK9N8
XtueRp2z+QZsPYpIyYOaPYvnwQh6g09692AJHTFHn66xFFtVHKO+iygTs7K+1AXQ
I7xwOqvjTk6kj91RCMRIHatoO3dAoeAG/rJknPQxFRjwtf7yYmvJO1L+MN5dCXZM
OS7rAoIBAAwbHSXvsBoseHyElBVzMkXlTpGWdzEGMhFtcC5ZtgkS6l8XCF7ZKzYS
O4qwj+9SqfLE9KojCeubCf7F9nVd9A9JzKtPEDT3UyDS6dsx00Uhp6jMaR0JoO6l
IeS1sZqF4FKJ1s14Z3Qg4XLhgPiGg7uwCBQpG3N4BbE799dZ+zbqjxQ0GXyTwVna
3OyjI09/3ieImAMNh1X2zcjVMAAgR8XOnxHshYL4YBDGDPV6rZkLzOIz78QCWoTj
bekkWl80CHmofLF+FfOKXgO9iTMlLFoJ1Vnz0FuTSeIkaHMSIsiKzRMQOYS9YgMe
Zz2tvLZ5Flf3VJWBhGnLez1e5Lt3qYcCggEAQM/jtenikN1WKwX3PWOSfGoP0WcM
yA92i/4WY/eluU0S6XlmlP2YuR7edPDV7Jw2qpj89892s4Vketo2hSt2h73pjOtn
dVznX0Tsz2AUxJDFhGDMihStkhlUTXl3ib1405pk1Xaa1kKYXeFrBiZvwNxVI1il
lXuGE0F1JGohT5Prss4AqzUozOFlb1AiXIm7ZyU7nlmq9iyQeu03k9c0GwABF0CZ
3Ql3jqKCim9Mo+EF7LWjl8xwgUjThU8btfQYQZV2DiIRnuXliAnE4mDAer2Utek3
fvtPUj1EfYCvP0BSbLeady4cvX4VuHs+83FfwqzDr7j79oiby0IetRtMUw==
-----END RSA PRIVATE KEY-----
